Circuit: * C:\Users\talha\Documents\College\2020-2021\Electrical Machines & Power\Power Electronics\Labs - Frank\Lab 4_Rectifier\Rectification\UncontrolledRectifierResistiveLoad.asc

Per .tran options, skipping operating point for transient analysis.

Date: Wed Nov 18 11:58:56 2020
Total elapsed time: 0.073 seconds.

tnom = 27
temp = 27
method = modified trap
totiter = 2597
traniter = 2597
tranpoints = 1134
accept = 1116
rejected = 18
matrix size = 4
fillins = 1
solver = Normal
Matrix Compiler1:      12 opcodes  0.1/[0.1]/0.1
Matrix Compiler2:      24 opcodes  0.1/[0.1]/0.1

