Circuit: * C:\users\frank\My Documents\notes\2020-2021\EMandPE\LTSpice\dqoabc\dqoabc3.asc

Direct Newton iteration for .op point succeeded.

Date: Thu Nov 12 14:04:05 2020
Total elapsed time: 0.054 seconds.

tnom = 27
temp = 27
method = modified trap
totiter = 2367
traniter = 2364
tranpoints = 1183
accept = 1125
rejected = 58
matrix size = 12
fillins = 0
solver = Normal
Matrix Compiler1: 374 bytes object code size  0.1/0.1/[0.0]
Matrix Compiler2: 718 bytes object code size  0.1/0.1/[0.1]

