Circuit: * C:\users\frank\My Documents\notes\2020-2021\EMandPE\LTSpice\dqoabc\Draft1.asc

Per .tran options, skipping operating point for transient analysis.

Date: Thu Nov 12 13:41:31 2020
Total elapsed time: 0.057 seconds.

tnom = 27
temp = 27
method = modified trap
totiter = 2154
traniter = 2154
tranpoints = 1078
accept = 1076
rejected = 2
matrix size = 9
fillins = 0
solver = Normal
Matrix Compiler1: 170 bytes object code size  0.1/0.1/[0.0]
Matrix Compiler2: off  [0.1]/0.1/0.1

