Circuit: * C:\Users\talha\Documents\College\2020-2021\Electrical Machines & Power\Power Electronics\Labs - Frank\Lab 2_MOSFET\MOSFET_Lab\Draft1.asc

Direct Newton iteration for .op point succeeded.

Date: Tue Nov 03 01:57:41 2020
Total elapsed time: 0.049 seconds.

tnom = 27
temp = 27
method = modified trap
totiter = 2085
traniter = 2082
tranpoints = 1042
accept = 1042
rejected = 0
matrix size = 4
fillins = 0
solver = Normal
Matrix Compiler1: 64 bytes object code size  0.0/0.0/[0.0]
Matrix Compiler2: off  [0.0]/0.0/0.0

