Circuit: * C:\Users\talha\Documents\College\2020-2021\Electrical Machines & Power\Power Electronics\Labs - Frank\Lab 2_MOSFET\MOSFET_Lab\Drive1.asc

Limiting rise time of source v2 to 5e-007
Limiting fall time of source v2 to 5e-007
Direct Newton iteration for .op point succeeded.

Date: Thu Oct 29 23:26:06 2020
Total elapsed time: 0.155 seconds.

tnom = 27
temp = 27
method = modified trap
totiter = 66228
traniter = 66222
tranpoints = 19135
accept = 14405
rejected = 4730
matrix size = 9
fillins = 0
solver = Normal
Matrix Compiler1: 296 bytes object code size  0.1/0.1/[0.0]
Matrix Compiler2: 599 bytes object code size  0.0/0.1/[0.0]

