Circuit: * C:\Users\talha\Documents\College\2020-2021\Electrical Machines & Power\Power Electronics\Labs - Frank\Lab 22\MOSFET_Lab\Drive3.asc

Limiting rise time of source v2 to 5e-007
Limiting fall time of source v2 to 5e-007
Direct Newton iteration for .op point succeeded.

Date: Wed Oct 07 12:22:40 2020
Total elapsed time: 0.125 seconds.

tnom = 27
temp = 27
method = modified trap
totiter = 12955
traniter = 12933
tranpoints = 3782
accept = 2936
rejected = 846
matrix size = 22
fillins = 8
solver = Normal
Matrix Compiler1: 1.86 KB object code size  0.2/0.2/[0.2]
Matrix Compiler2: 1.90 KB object code size  0.1/0.2/[0.1]

