Circuit: * C:\Users\talha\Documents\College\2020-2021\Electrical Machines & Power\Power Electronics\Labs - Frank\Lab 22\MOSFET_Lab\Drive4.asc

Limiting rise time of source v4 to 5e-007
Limiting fall time of source v4 to 5e-007
Limiting rise time of source v2 to 5e-007
Limiting fall time of source v2 to 5e-007
Direct Newton iteration for .op point succeeded.

Date: Wed Oct 07 12:31:58 2020
Total elapsed time: 0.168 seconds.

tnom = 27
temp = 27
method = modified trap
totiter = 25788
traniter = 25745
tranpoints = 7241
accept = 5342
rejected = 1899
matrix size = 43
fillins = 46
solver = Normal
Matrix Compiler1: 5.45 KB object code size  0.7/0.3/[0.2]
Matrix Compiler2: off  [0.3]/0.4/0.3

