Circuit: * C:\Users\talha\Documents\College\2020-2021\Electrical Machines & Power\Power Electronics\Labs - Frank\Lab 2_MOSFET\MOSFET_Lab\Drive2.asc

Limiting rise time of source v2 to 5e-007
Limiting fall time of source v2 to 5e-007
Direct Newton iteration for .op point succeeded.

Date: Thu Oct 29 23:18:56 2020
Total elapsed time: 0.114 seconds.

tnom = 27
temp = 27
method = modified trap
totiter = 10138
traniter = 10105
tranpoints = 2994
accept = 2421
rejected = 573
matrix size = 18
fillins = 6
solver = Normal
Matrix Compiler1: 1.39 KB object code size  0.2/0.1/[0.1]
Matrix Compiler2: off  [0.1]/0.2/0.1

