Circuit: * C:\Users\talha\Documents\College\2020-2021\Electrical Machines & Power\Power Electronics\Labs - Frank\Lab 22\MOSFET_Lab\Drive5.asc

Limiting rise time of source v4 to 5e-007
Limiting fall time of source v4 to 5e-007
Limiting rise time of source v2 to 5e-007
Limiting fall time of source v2 to 5e-007
Per .tran options, skipping operating point for transient analysis.
Heightened Def Con from 5.49791e-006 to 5.5e-006
Heightened Def Con from 4.55001e-005 to 4.55031e-005
Heightened Def Con from 6.54057e-005 to 6.54057e-005
Heightened Def Con from 6.54057e-005 to 6.54059e-005
Heightened Def Con from 6.54062e-005 to 6.54073e-005
Heightened Def Con from 8.54582e-005 to 8.54602e-005
Heightened Def Con from 8.55001e-005 to 8.55031e-005

Date: Wed Oct 07 13:07:47 2020
Total elapsed time: 0.231 seconds.

tnom = 27
temp = 27
method = modified trap
totiter = 29633
traniter = 29633
tranpoints = 7823
accept = 5723
rejected = 2107
matrix size = 42
fillins = 45
solver = Normal
Matrix Compiler1: 5.63 KB object code size  0.6/0.4/[0.2]
Matrix Compiler2: 4.42 KB object code size  0.3/0.3/[0.2]

