Circuit: * C:\users\frank\My Documents\notes\2020-2021\EMandPE\LTSpice\dqoabc\dqoabc1.asc

Per .tran options, skipping operating point for transient analysis.

Date: Thu Nov 05 11:21:30 2020
Total elapsed time: 0.053 seconds.

tnom = 27
temp = 27
method = modified trap
totiter = 3058
traniter = 3058
tranpoints = 1528
accept = 1225
rejected = 303
matrix size = 24
fillins = 0
solver = Normal
Matrix Compiler1: 758 bytes object code size  0.2/0.2/[0.1]
Matrix Compiler2: 1.25 KB object code size  0.2/0.3/[0.1]

